Version 4
SHEET 1 2192 1448
WIRE 304 -224 304 -256
WIRE -464 64 -464 16
WIRE -320 64 -320 16
WIRE -176 64 -208 64
WIRE -64 64 -96 64
WIRE -464 160 -464 144
WIRE -208 160 -208 64
WIRE -208 160 -464 160
WIRE -176 160 -208 160
WIRE -64 176 -64 64
WIRE -64 176 -112 176
WIRE 16 176 -64 176
WIRE 64 176 16 176
WIRE -320 192 -320 128
WIRE -240 192 -320 192
WIRE -176 192 -240 192
WIRE -320 208 -320 192
WIRE -464 224 -464 160
WIRE -320 224 -320 208
WIRE -464 336 -464 304
WIRE -320 336 -320 288
WIRE -128 416 -128 400
WIRE 112 464 112 384
WIRE -176 480 -496 480
WIRE -128 496 -128 480
WIRE 16 496 -128 496
WIRE 112 496 16 496
WIRE -496 512 -496 480
WIRE -128 512 -128 496
WIRE -176 528 -176 480
WIRE -128 624 -128 592
WIRE 208 640 208 608
WIRE -496 672 -496 592
WIRE -176 672 -176 576
WIRE -176 672 -496 672
WIRE 208 672 208 640
FLAG 304 -144 0
FLAG 304 -256 +5V
FLAG -464 336 0
FLAG -320 336 0
FLAG -464 16 +5V
FLAG -320 16 +5V
FLAG -144 144 0
FLAG -144 208 +5V
FLAG -240 192 tau1
FLAG 16 496 COMP1|BTN
FLAG -128 624 0
FLAG -128 320 +5V
FLAG 112 304 +5V
FLAG 304 464 Q
FLAG 208 304 +5V
FLAG 208 752 0
FLAG 208 640 IMD_OK
FLAG 16 176 COMP1|BTN
SYMBOL res -480 208 R0
SYMATTR InstName R1
SYMATTR Value 30k
SYMBOL res -480 48 R0
SYMATTR InstName R2
SYMATTR Value 20k
SYMBOL voltage 304 -240 R0
WINDOW 123 0 0 Left 0
WINDOW 39 0 0 Left 0
SYMATTR InstName V1
SYMATTR Value PULSE(0 5 1p 1p 1p 3s)
SYMBOL polcap -336 64 R0
WINDOW 3 24 56 Left 2
SYMATTR Value 22µ
SYMATTR InstName C1
SYMATTR Description Capacitor
SYMATTR Type cap
SYMATTR SpiceLine V=16 Irms=30m Rser=1.6383 Lser=1.778n mfg="Würth Elektronik" pn="865230342002 WCAP-AS5H 5x5,5" type="Al electrolytic"
SYMBOL res -336 192 R0
SYMATTR InstName R3
SYMATTR Value 120k
SYMBOL res -80 48 R90
WINDOW 0 0 56 VBottom 2
WINDOW 3 32 56 VTop 2
SYMATTR InstName R4
SYMATTR Value 20k
SYMBOL ZZZ\\Comparator\\lm393 -144 176 M180
SYMATTR InstName U2
SYMBOL ZZZ\\LOGIC\\74HC\\74hc74 208 384 R0
SYMATTR InstName U3
SYMBOL res -144 304 R0
SYMATTR InstName R7
SYMATTR Value 10k
SYMBOL sw -128 608 M180
SYMATTR InstName S1
SYMATTR Value BTN
SYMBOL voltage -496 496 R0
WINDOW 123 0 0 Left 0
WINDOW 39 0 0 Left 0
SYMATTR InstName V2
SYMATTR Value PULSE(0 2 2.5 10m 10m 200m)
SYMBOL res 96 288 R0
SYMATTR InstName R8
SYMATTR Value 10k
SYMBOL res 192 288 R0
SYMATTR InstName R9
SYMATTR Value 10k
SYMBOL voltage 208 656 R0
WINDOW 123 0 0 Left 0
WINDOW 39 0 0 Left 0
SYMATTR InstName V3
SYMATTR Value PULSE(0 5 1 10m 200m 1.8)
SYMBOL schottky -144 416 R0
WINDOW 3 -105 30 Left 2
SYMATTR Value RB557W
SYMATTR InstName D1
SYMATTR Description Diode
SYMATTR Type diode
TEXT -496 360 Left 2 !.tran 3s
TEXT -56 232 Left 2 ;active low
TEXT -448 624 Left 2 ;manual button press
TEXT -544 720 Left 2 !.model BTN SW(Ron=1 Roff=2.2Meg Vt=1 Vh=0.02)
TEXT 312 664 Left 2 ;IMD OK signal source
TEXT 424 472 Left 2 ;---> Only on the rising edge of CLK\n(Auto-Reset or Reset Button) Q output will assert\nIMD OK signal, if signal is not present it latches low
TEXT 16 56 Left 2 ;autoreset feature
